#SEAWATER Sample Problem, GWM file
#February 20, 2005
DECVAR  ..\data\seawater.decvar
OBJFNC  ..\data\seawater.objfnc
VARCON  ..\data\seawater.varcon
SUMCON  ..\data\seawater.sumcon
HEDCON  ..\data\seawater.hedcon
SOLN    ..\data\seawater.soln

