C     ******************************************************************
C     MAIN CODE FOR U.S. GEOLOGICAL SURVEY MODULAR MODEL -- MODFLOW
C           BY MICHAEL G. MCDONALD AND ARLEN W. HARBAUGH
C     MODFLOW-88 documented in:
C        McDonald, M.G. and Harbaugh, A.W., 1988, A modular three-
C           dimensional finite-difference ground-water flow model:
C           U.S. Geological Survey Techniques of Water Resources
C           Investigations, Book 6, Chapter A1, 586 p.
C     MODFLOW-96 documented in:
C        Harbaugh, A.W. and McDonald, M.G., 1996, User's documentation
C           for the U.S. Geological Survey modular finite-difference
C           ground-water flow model: U.S. Geological Survey Open-File
C           Report 96-485
C     MODFLOW-2000 documented in:
C        Harbaugh, A.W., Banta, E.R., Hill, M.C., and McDonald, M.G.,
C           2000, MODFLOW-2000, the U.S. Geological Survey modular
C           ground-water model--User guide to modularization concepts
C           and the Ground-Water Flow Process: U.S. Geological Survey
C           Open-File Report 00-92
C        Hill, M.C., Banta, E.R., Harbaugh, A.W., and Anderman, E.R.,
C           2000, MODFLOW-2000, the U.S. Geological Survey modular
C           ground-water model--User guide to the Observation,
C           Sensitivity, and Parameter-Estimation Processes and three
C           post-processing programs: U.S. Geological Survey Open-
C           File Report 00-184
C     ******************************************************************
C        SPECIFICATIONS:
C     ------------------------------------------------------------------
C GWM: List all GWM subroutines to be called in this program
      USE GWM1BAS1SUBS, ONLY: GWM1BAS1AR,GWM1BAS1RW,GWM1BAS1RPP 
      USE GWM1RMS1SUBS, ONLY: GWM1RMS1PL,GWM1RMS1PP,GWM1RMS1FP, 
     &                        GWM1RMS1FM,GWM1RMS1AP,GWM1RMS1OT,
     &                        GWM1RMS1OS   
      USE GWM1DCV1, ONLY: GWF1DCV1FM,GWF1DCV1BD 
      USE GWM1HDC1, ONLY: GWM1HDC1OS 
      USE GWM1STC1, ONLY: GWM1STC1OS 
C
C-------ASSIGN VERSION NUMBER AND DATE
      CHARACTER*40 VERSION
      PARAMETER (VERSION='MF2K_GWM 1.1.2 061609,FROM MF2K V1.17.02')
C
C-----DECLARE ARRAY TYPES
      REAL GX, X, RX
cgzh mnw dp
      DOUBLE PRECISION GZ, VAR, Z, RZ
      INTEGER IG, IX, IR
      CHARACTER*10 EQNAM, NIPRNAM
      CHARACTER*12 NAMES, OBSNAM
      CHARACTER*32 MNWSITE
C
C *** FOR STATIC MEMORY ALLOCATION, THE FOLLOWING PARAMETER AND
C *** DIMENSION STATEMENTS MUST BE UNCOMMENTED.  TO CHANGE THE SIZE OF
C *** AN ARRAY, CHANGE THE VALUE OF THE CORRESPONDING (FORTRAN)
C *** PARAMETER AND RECOMPILE
C      PARAMETER (LENGX=1000000, LENIG=1000000, LENGZ=1000000,
C     &           LENX=2000000, LENIX=1500000, LENZ=1000000,
C     &           LENRX=1000000, LENIR=1000000, LENXHS=1000000,
C     &           NDD=10000, MPRD=100, IPRD=100)
C      DIMENSION GX(LENGX), IG(LENIG), X(LENX), IX(LENIX), RX(LENRX),
C     &          IR(LENIR), GZ(LENGZ), Z(LENZ), XHS(LENXHS),
C     &          EQNAM(MPRD), NIPRNAM(IPRD), NAMES(NDD+MPRD+IPRD),
C     &          OBSNAM(NDD)
C
C *** FOR STATIC MEMORY ALLOCATION, THE FOLLOWING ALLOCATABLE
C *** STATEMENT MUST BE COMMENTED OUT
      ALLOCATABLE GX(:), IG(:), X(:), IX(:), RX(:), IR(:), GZ(:), Z(:),
cgzh mnw dp
     &            RZ(:), XHS(:), NIPRNAM(:), EQNAM(:), NAMES(:),
     &            OBSNAM(:)
C
      ALLOCATABLE MNWSITE(:)
C
      PARAMETER (NIUNIT=100)
      PARAMETER (MXPER=1000)
C
      DIMENSION PERLEN(MXPER),NSTP(MXPER),TSMULT(MXPER),ISSFLG(MXPER)
      CHARACTER*16 VBNM(NIUNIT)
      DIMENSION VBVL(4,NIUNIT),IUNIT(NIUNIT),IREWND(NIUNIT)
      CHARACTER*80 HEADNG(2)
      DOUBLE PRECISION AP
C
C  UNCOMMENT "INCLUDE mpif.h" DURING TESTING TO DEVELOP MPI CODE IN THIS
C  ROUTINE OR TO ACTIVATE TIMERS AND DEBUG MODE.
C     INCLUDE 'mpif.h'
      INCLUDE 'parallel.inc'
      INCLUDE 'param.inc'
      INCLUDE 'openspec.inc'
C-------SPECIFY SIZE OF ARRAY TO HOLD SENSITIVITIES FROM ONE
C-------PARAMETER-ESTIMATION ITERATION TO THE NEXT WHEN PES, SEN, AND
C-------ANY OBS PACKAGE ARE ACTIVE.  IF IUHEAD IS GREATER THAN ZERO,
C-------LENXHS MAY EQUAL 1.  IF IUHEAD IS LESS THAN OR EQUAL TO ZERO,
C-------LENXHS MUST BE AT LEAST:
C-------NLAY*NCOL*NROW*(NUMBER OF PARAMETERS TO BE ESTIMATED).
C
      COMMON /BCFCOM/LAYCON(999)
      COMMON /DISCOM/LBOTM(999),LAYCBD(999)
      COMMON /LPFCOM/LAYTYP(999),LAYAVG(999),CHANI(999),LAYVKA(999),
     1               LAYWET(999)
      INTEGER LAYHDT(999)
C
      CHARACTER*4 PIDTMP
      CHARACTER*20 CHEDFM,CDDNFM,CBOUFM
      CHARACTER*200 FNAME, OUTNAM, COMLIN
      CHARACTER*200 MNWNAME
C
      LOGICAL EXISTS, BEFIRST, SHOWPROG, RESETDD, RESETDDNEXT, OBSALL
      INTEGER NPEVT, NPGHB, NPDRN, NPHFB, NPRIV, NPSTR, NPWEL, NPRCH
      INTEGER IUBE(2), IBDT(8)
      INTEGER IOWELL2(3)  ! FOR MNW1 PACKAGE
      DOUBLE PRECISION SMALL  ! FOR MNW1 PACKAGE
      LOGICAL FIRSTSIM,LASTSIM,FINISH,MFCNVRG,GWMCNVRG  ! FOR GWM PROCESS
      INTEGER IPERT,NPERT              ! FOR GWM PROCESS
      CHARACTER*4 CUNIT(NIUNIT)
      CHARACTER*10 PARNEG(MXPAR)
      DATA CUNIT/'BCF6', 'WEL ', 'DRN ', 'RIV ', 'EVT ', '    ', 'GHB ',  !  7
     &           'RCH ', 'SIP ', 'DE4 ', 'SOR ', 'OC  ', 'PCG ', 'LMG ',  ! 14
     &           'gwt ', 'FHB ', 'RES ', 'STR ', 'IBS ', 'CHD ', 'HFB6',  ! 21
     &           'LAK ', 'LPF ', 'DIS ', 'SEN ', 'PES ', 'OBS ', 'HOB ',  ! 28
     &           'ADV2', 'COB ', 'ZONE', 'MULT', 'DROB', 'RVOB', 'GBOB',  ! 35
     &           'STOB', 'HUF2', 'CHOB', 'ETS ', 'DRT ', 'DTOB', 'GMG ',  ! 42
     &           'HYD ', 'SFR ', 'sfob', 'GAGE', 'LVDA', '    ', 'LMT6',  ! 49
     &           'MNW1', 'DAF ', 'DAFG', 'KDEP', 'SUB ', 'GWM ', '    ',  ! 56
     &           '    ', '    ', '    ', 'unc ', '    ', '    ', '    ',  ! 63
     &           37*'    '/
C     ------------------------------------------------------------------
cc      open(78,file='mf2k.dbg')
cc      write(*,*)' Opened file mf2k.dbg for debugging'
cc      write(78,2005)
cc 2005 format(' File mf2k.dbg',/)
      CALL PLL1IN
      IF (MYID.EQ.MPROC) WRITE (*,1) VERSION
    1 FORMAT (/,34X,'MODFLOW-2000',/,
     &4X,'U.S. GEOLOGICAL SURVEY MODULAR FINITE-DIFFERENCE',
     &' GROUND-WATER FLOW MODEL',/,29X,'Version ',A/)
      INUNIT = 99
      IBUNIT = 98
      IBOUTS = 97
      IERRU  = 96
      MAXUNIT= INUNIT
C     DEFINE RANGE OF RESERVED FILE UNITS
      MINRSV = 96
      MAXRSV = 99
      IBATCH = 0
CLAK
      NSOL = 1
      DUM=0.0D0
C
      INQUIRE (FILE='modflow.bf',EXIST=EXISTS)
      IF (EXISTS) THEN
        IBATCH = 1
        IF (MYID.EQ.MPROC) THEN
          OPEN (UNIT=IBUNIT,FILE='modflow.bf',STATUS='OLD')
          OPEN (UNIT=IBOUTS,FILE='modbatch.rpt')
          WRITE (IBOUTS,*) ' USGS MODFLOW MODEL BATCH-MODE REPORT'
        ENDIF
      ENDIF
C2------OPEN FILE OF FILE NAMES.
   10 CONTINUE
      IF (MYID.EQ.MPROC) THEN
        IF (IBATCH.GT.0) THEN
          READ (IBUNIT,'(A)',END=11) FNAME
          GOTO 12
   11     CLOSE(IBUNIT)
          CLOSE(IBOUTS)
          FNAME=' '
          GOTO 15
   12     IF (FNAME.EQ.' ') GOTO 10
          WRITE (IBOUTS,'(1X,/1X,A)') FNAME
        ELSE
          FNAME=' '
          COMLIN=' '
C *** Subroutines GETARG and GETCL are extensions to Fortran 90/95 that
C *** allow a program to retrieve command-line arguments.  To enable
C *** Modflow-2000 to read the name of a Name file from the command
C *** line, either GETARG or GETCL must be called, but not both.  As
C *** distributed, the call to GETARG is uncommented.  For compilers
C *** that support GETCL but not GETARG, comment out the call to GETARG
C *** and uncomment the call to GETCL.  The calls to both GETARG and
C *** GETCL may be commented out for compilers that do not support
C *** either extension.
          CALL GETARG(1,COMLIN)
C          CALL GETCL(COMLIN)
          ICOL = 1
          IF(COMLIN.NE.' ') THEN
            FNAME=COMLIN
          ELSE
            WRITE (*,*) ' Enter the name of the NAME FILE: '
            READ (*,'(A)') FNAME
            CALL URWORD(FNAME,ICOL,ISTART,ISTOP,0,N,R,0,0)
            FNAME=FNAME(ISTART:ISTOP)
          ENDIF
          IF (FNAME.EQ.' ') GOTO 15
          INQUIRE (FILE=FNAME,EXIST=EXISTS)
          IF(.NOT.EXISTS) THEN
            NC=INDEX(FNAME,' ')
            FNAME(NC:NC+3)='.nam'
            INQUIRE (FILE=FNAME,EXIST=EXISTS)
            IF(.NOT.EXISTS) THEN
              WRITE (*,480) FNAME(1:NC-1),FNAME(1:NC+3)
              FNAME=' '
            ENDIF
          ENDIF
        ENDIF
        IF (FNAME.EQ.' ') GOTO 15
        INQUIRE (FILE=FNAME,EXIST=EXISTS)
        IF (.NOT.EXISTS) THEN
          IF (IBATCH.GT.0) THEN
            WRITE (IBOUTS,*) ' Specified name file does not exist.'
            WRITE (IBOUTS,*) ' Processing will continue with the next ',
     &                       'name file in modflow.bf.'
          ENDIF
          GOTO 10
        ENDIF
      ENDIF
   15 CONTINUE
  480 FORMAT(1X,'Can''t find name file ',A,' or ',A)
C
C     BROADCAST FNAME AND OPEN FILE FOR WARNINGS AND ERROR MESSAGES
      CALL PLL1FN(FNAME)
      IF (FNAME.EQ.' ') GOTO 120
      CALL PLL1OP(IERRU,IERR)
      OPEN (UNIT=INUNIT,FILE=FNAME,STATUS='OLD',ACTION=ACTION(1))
      IF (MYID.EQ.MPROC) WRITE(*,490)' Using NAME file: ',FNAME
  490 FORMAT(A,A)
C
C  DEFINE (DF) PROCEDURE
      CALL GLO1BAS6DF(INUNIT,IUNIT,CUNIT,IREWND,NIUNIT,IOUTG,IOUT,
     &                VERSION,NCOL,NROW,NLAY,NPER,ITMUNI,ISUMGX,
     &                MXPER,ISUMIG,ISUMGZ,INBAS,LENUNI,ISUMX,ISUMZ,
     &                ISUMIX,LAYHDT,24,IFREFM,INAMLOC,IPRTIM,IBDT,
     &                SHOWPROG,NOTICECOUNT)
      CALL GWF1HUF2DF(IOHUFHDS,IOHUFFLWS)
Cdep replaced SFR1 with SFR2
      CALL GWF1SFR2DF(NLAKES,NLAKESAR,LKACC7,LCSTAG,LSLAKE,LSTGLD,
     &                LCRNF,ISTRIN,IDSTRT,ISTROT,ISTGNW,LSCOUT,LSCONQ,
     &                LSCNRN,LSCPPT,LSCNTB,LSSLIN,LSCQIN,LSCGW,LSSIN,
     &                LSSOUT,LSCOTO,ISUZN,NUZST,NSTOTRL,NSTRMSQD,
     &                NUMCELL,NUZROW,NUZCOL,NSSLK)
Cdep end of change
      CALL GWF1LAK3DF(NSS,IDSTRT,ISTRIN,ISTROT,LSLAKE,LSAUG,LSPPT,
     &                LSRNF,LSCGWL,LSSLAK,LSSWIN,LSSWOT,LSSPPT,LSCDRW,
     &                LSSRUN,LSGWIN,LSGWOT,LSOVOL,LSKLK,LSDONE,LSLKSM,
     &                LSFLOB,LSRTCO,LSCLKO,LSALKI,LSALKO,NSSAR,LCSEG,
     &                NSSLK,ISLKOTFLW,IDLKOTFLW,IDLKSTAGE)
Cdep  revised GAG5 to include SFR2
      CALL GWF1GAG5DF(NUMGAGE,LSGAGE,NSTRM,ICSTRM,NLAKES,LKACC7,
     &                LCSTAG,LSLAKE,NLAKESAR,NSTRMAR,NSS,NSSAR,LCIVAR,
     &                NUZST,NUMAVE)
Cdep  end of change
      CALL GWF1MNW1DF(LCHANI,LCHK,LCHKCC,LCHUFTHK,LCHY,LCSSHMN,LCTRPY,
     &                NHUFAR)
C
C  GLOBAL ALLOCATE (AL) PROCEDURE
C  Initialize some variables that are not initialized because OBS, SEN, and PES are removed
      IOBS=0
      ISEN=0
      IPES=0
C GWM: ZERO VARIABLES USED WHEN PARAMETERS ARE READ FROM SENSITIVITY PROCESS FILES
      NPLIST=0
      NPHUF =0
      NPLPF =0
      NPLVDA=0
      NPKDEP=0
      LCISEN=1
      CALL GLO1BAS6AL(IUNIT(24),NCNFBD,NBOTM,NCOL,NROW,NLAY,LCBOTM,
     &                LCDELR,LCDELC,ISUMGX,IOUTG,LCHNEW,LCIBOU,LCCR,
     &                LCCC,LCCV,LCRHS,LCHCOF,LCHOLD,LCBUFF,LCSTRT,
     &                ISUMGZ,ISUMIG,ISEN,IOBS,IPES,ISENALL,ITMXP,IPAR,
     &                IUNIT(31),IUNIT(32),NMLTAR,NZONAR,NML,NZN,LCRMLT,
     &                LCIZON,IUNIT(15))
C
C  DYNAMICALLY ALLOCATE GLOBAL ARRAYS GX, GZ, AND IG.  FOR STATIC
C  MEMORY ALLOCATION, THE FOLLOWING THREE ASSIGNMENT AND ONE ALLOCATE
C  STATEMENTS MUST BE COMMENTED OUT
      LENGX = ISUMGX - 1
      LENGZ = ISUMGZ - 1
      LENIG = ISUMIG - 1
      ALLOCATE (GX(LENGX),GZ(LENGZ),IG(LENIG),STAT=ISTAT)
C
      IF (ISTAT.NE.0) THEN
        WRITE(*,700)ISTAT
  700   FORMAT(1X,'ALLOCATION OF ARRAYS GX, GZ, AND IG FAILED,',
     &  ' RETURNED ERROR MESSAGE NUMBER: ',I6)
        CALL USTOP(' ')
      ENDIF
C
      CALL MEMCHKG(ISUMGX,ISUMIG,ISUMGZ,LENGX,LENIG,LENGZ,IOUTG,IERR,
     &             IERRU)
      IF (IERR.GT.0) CALL PLL1SD(IERR,IERRU,IOUT,IOUTG)
C
C  GLOBAL READ AND PREPARE (RP) PROCEDURE
      CALL GLO1BAS6RP(IUNIT(24),NCOL,NROW,NLAY,GX(LCBOTM),NBOTM,IOUTG,
     1                GX(LCDELR),GX(LCDELC),NPER,PERLEN,NSTP,TSMULT,
     2                ISSFLG,ITRSS,IUNIT(31),IUNIT(32),NMLTAR,NZONAR,
     3                GX(LCRMLT),IG(LCIZON),NML,NZN)
C
C-----NO rewind AL and RP for Ground-Water Flow Process
      IF(IUNIT(23).GT.0)
     1    CALL GWF1LPF1ALG(ISUMX,LCHK,LCVKA,LCSC1,LCSC2,LCHANI,LCVKCB,
     2                     IUNIT(23),NCOL,NROW,NLAY,IOUTG,ILPFCB,LCWETD,
     3                     HDRY,NPLPF,NCNFBD,LCLAYF,IREWND(23),ISUMIX,
     4                     LAYHDT,ITRSS,LCSV,ISEN)

      IF(IUNIT(37).GT.0) THEN
        CALL GWF1HUF2ALG(ISUMX,LCHK,LCVKA,LCSC1,IUNIT(37),ITRSS,NCOL,
     &                   NROW,NLAY,IOUTG,IHUFCB,LCWETD,HDRY,NPER,
     &                   ISSFLG,LCHGUF,IREWND(37),
     &                   NHUF,NPHUF,LCHUFTHK,LCHKCC,ISUMIX,IOHUFHDS,
     &                   IOHUFFLWS,LAYHDT,LCHUFTMP)
        CALL GWF1HUF2LVDA1ALG(ISUMX,ISUMIX,IUNIT(47),IOUTG,NCOL,
     &                        NROW,NLAY,LCVDHD,LCDVDH,LCVDHT,NPLVDA,
     &                        LCA9)
        CALL GWF1HUF2KDEP1ALG(ISUMX,IUNIT(53),IOUTG,NCOL,NROW,
     &                        LCGS,NPKDEP,IFKDEP)
      ENDIF

      IF(IUNIT(9).GT.0)
     1    CALL SIP5ALG(ISUMX,ISUMIX,LCEL,LCFL,LCGL,LCV,LCHDCG,LCLRCH,
     2                 LCW,MXITER,NPARM,NCOL,NROW,NLAY,IUNIT(9),IOUTG,
     3                 IFREFM,IREWND(9))
      IF(IUNIT(10).GT.0)
     1    CALL DE45ALG(ISUMX,ISUMIX,LCAU,LCAL,LCIUPP,LCIEQP,LCD4B,
     2                 LCLRCH,LCHDCG,MXUP,MXLOW,MXEQ,MXBW,IUNIT(10),
     3                 ITMX,ID4DIR,NCOL,NROW,NLAY,IOUTG,ID4DIM,
     4                 IREWND(10))
      IF(IUNIT(11).GT.0)
     1    CALL SOR5ALG(ISUMX,ISUMIX,LCA,LCRES,LCHDCG,LCLRCH,LCIEQP,
     2                 MXITER,NCOL,NLAY,NSLICE,MBW,IUNIT(11),IOUTG,
     3                 IFREFM,IREWND(11))
      IF(IUNIT(13).GT.0)
     1    CALL PCG2ALG(ISUMX,ISUMIX,LCV,LCSS,LCP,LCCD,LCHCHG,LCLHCH,
     2                 LCRCHG,LCLRCH,MXITER,ITER1,NCOL,NROW,NLAY,
     3                IUNIT(13),IOUTG,NPCOND,LCIT1,LCHCSV,IFREFM,
     4                IREWND(13),ISUMZ,LCHPCG)
      IF(IUNIT(14).GT.0)
     1    CALL LMG1ALG(ISUMZ,ISUMIX,LCA,LCIA,LCJA,LCU1,LCFRHS,
     2                 LCIG,ISIZ1,ISIZ2,ISIZ3,ISIZ4,ICG,NCOL,NROW,NLAY,
     3                 IUNIT(14),IOUTG,1)
      IF(IUNIT(42).GT.0)
     1    CALL GMG1ALG(NCOL,NROW,NLAY,MXITER,IITER,RCLOSE,HCLOSE,DAMP,
     2                 IADAMP,IOUTGMG,IUNIT(42),IOUTG)
C
C GWM: ADD CALL TO READ SENSITIVITY PROCESS INPUT FILE
C-----ALLOCATE SPACE FOR SENSITIVITY CALCULATIONS
      IF (IUNIT(25).GT.0)
     &    CALL SEN1BAS6AL(ISUMX,ISUMIX,NCOL,NROW,NLAY,IOUTG,IUHEAD,
     &                    NPLIST,IUNIT(25),IPAR,LCHCLO,LCRCLO,LCLN,
     &                    IPRINTS,LCISEN,LCBU,LCBL,LCB1,ISENALL,
     &                    IREWND(25),LCSNEW,LCSOLD,ISUMZ,ISEN,ISENSU,
     &                    ISENPU,ISENFM,IPES,MXSEN,LCBSCA,ITMXP,MAXUNIT,
     &                    MINRSV,MAXRSV,NSTP,NPER,NTIMES,LCSEND,LCSNDT)
C
C------DYNAMICALLY ALLOCATE X, Z, IX, XHS, NIPRNAM, EQNAM, NAMES, AND
C      OBSNAM ARRAYS FOR OBS, SEN, AND PES PROCESSES; SOLVERS; AND
C      PACKAGES THAT DO ALLOCATION ONCE ONLY.  FOR STATIC MEMORY
C      ALLOCATION, THE FOLLOWING LINES, THROUGH THE ALLOCATE STATEMENTS,
C      MUST BE COMMENTED OUT
      LENX = ISUMX - 1
      IF(LENX.LT.1) LENX=1
      LENZ = ISUMZ - 1
      IF(LENZ.LT.1) LENZ=1
      LENIX = ISUMIX - 1
      IF(LENIX.LT.1) LENIX=1
      ALLOCATE (X(LENX),Z(LENZ),IX(LENIX),STAT=ISTAT)
      IF (ISTAT.NE.0) THEN
        WRITE(*,701)ISTAT
  701   FORMAT(1X,'ALLOCATION OF ARRAYS X, Z, AND IX FAILED,',/,
     &  ' RETURNED ERROR MESSAGE NUMBER: ',I6)
        CALL USTOP(' ')
      ENDIF
C
C------IF THE ARRAYS ARE NOT BIG ENOUGH THEN STOP.
      CALL MEMCHK(ISUMX,ISUMIX,ISUMZ,LENX,LENIX,LENZ,IOUTG,
     &                IERR,IERRU)
      IF (IERR.GT.0) CALL PLL1SD(IERR,IERRU,IOUT,IOUTG)
C
C GWM: ADD CALL TO READ SENSITIVITY PROCESS INPUT FILE
      IF (IUNIT(25).GT.0)
     &    CALL SEN1BAS6RP(X(LCBL),X(LCBU),FAC,IX(LCISEN),IOUTG,
     &                    IUNIT(25),IX(LCLN),NPE,NPLIST,DETWTP,ISENALL,
     &                    X(LCBSCA),MXSEN)
C
C---------SOLVER PACKAGE
      IF(IUNIT(9).GT.0)
     1    CALL SIP5RPG(NPARM,MXITER,ACCL,HCLOSE,X(LCW),IUNIT(9),IPCALC,
     2                 IPRSIP,IOUTG,IFREFM)
      IF(IUNIT(10).GT.0)
     1    CALL DE45RPG(IUNIT(10),MXITER,NITER,ITMX,ACCL,HCLOSE,IFREQ,
     2                IPRD4,IOUTG,MUTD4)
      IF(IUNIT(11).GT.0)
     1    CALL SOR5RPG(MXITER,ACCL,HCLOSE,IUNIT(11),IPRSOR,IOUTG,IFREFM)
      IF(IUNIT(13).GT.0)
     1    CALL PCG2RPG(MXITER,ITER1,HCLOSE,RCLOSE,NPCOND,NBPOL,RELAX,
     2                IPRPCG,IUNIT(13),IOUTG,MUTPCG,NITER,DAMP,IFREFM)
      IF(IUNIT(14).GT.0)
     1    CALL LMG1RPG(IUNIT(14),MXITER,MXCYC,BCLOSE,DAMP,IOUTAMG,IOUTG,
     2                1,ICG,IADAMP,DUP,DLOW,HCLOSE)

C-----READ AND PREPARE FOR PACKAGES WITH NO REWIND
C GWM: LPF USES NNPLIST AS DIMENSION, SO IT MUST BE AT LEAST ONE
      IF(IUNIT(23).GT.0)THEN
          NNPLIST = MAX(1,NPLIST)      
          CALL GWF1LPF1RPGD(X(LCHK),X(LCVKA),X(LCVKCB),X(LCHANI),
     2                      X(LCSC1),X(LCSC2),IUNIT(23),ITRSS,NCOL,NROW,
     3                      NLAY,IOUTG,X(LCWETD),NPLPF,WETFCT,IWETIT,
     4                      IHDWET,IX(LCLAYF),GX(LCBOTM),NBOTM,
     5                      GX(LCDELR),GX(LCDELC),1,INAMLOC,
     6                      IX(LCISEN),ISEN,NNPLIST)
	ENDIF
C	
	IF(IUNIT(37).GT.0)
     &    CALL GWF1HUF2RPGD(IUNIT(37),NCOL,NROW,NLAY,IOUTG,X(LCWETD),
     &                    WETFCT,IWETIT,IHDWET,IX(LCHGUF),
     &                    1,NHUF,NPHUF,X(LCHUFTHK),
     &                    ITRSS)
      IF(IUNIT(47).GT.0)
     &    CALL GWF1HUF2LVDA1RPGD(IUNIT(47),IOUTG,1,NHUF,NPLVDA,NLAY,
     &                           ISEN)
      IF(IUNIT(53).GT.0)
     &    CALL GWF1HUF2KDEP1RPGD(IUNIT(53),IOUTG,1,NPKDEP,IFKDEP,NROW,
     &                           NCOL,X(LCGS),GX(LCBOTM),NHUF)
C
C  GWM VERSION OF MODFLOW-2000 HAS THE PARAMETER ESTIMATION LOOP
C  REMOVED, BUT STILL NEED TO SET ITERP AND ITERPK TO 1 TO CONTROL
C  SEVERAL OTHER PROCESSES
      ITERPK=1
      ITERP=1

C-----INSERT GWM LOOPING PARAMETERS
      FIRSTSIM = .TRUE.
      GWMCNVRG = .FALSE.
      FINISH   = .FALSE.
C-----READ GWM PROCESS INFORMATION
      IF(IUNIT(55).GT.0)
     &    CALL GWM1BAS1AR(IUNIT(55),IOUT,IOUTG,NROW,NCOL,NLAY,
     &                    NPER,PERLEN,HCLOSE)
C
C-----PREPARE ITERATION LOOP CONTROLS
      IF(IUNIT(55).EQ.0)THEN           ! GWM NOT ACTIVE; LOOP FOR ONE PASS
        LASTSIM = .TRUE.
      ELSEIF(IUNIT(55).GT.0)THEN       ! GWM ACTIVE; LOOP FOR GWM ITERATIONS
        LASTSIM = .FALSE.
        MFCNVRG = .TRUE.
      ENDIF
C
C-----BEGIN ITERATION LOOP FOR GWM PROCESS
      DO 300 WHILE (.NOT. FINISH)
C
C-------PREPARE PERTURBATION LOOP CONTROLS
        IF(IUNIT(55).EQ.0)THEN         ! GWM NOT ACTIVE; LOOP FOR ONE PASS
          IPERT = 1
          NPERT = 1
        ELSEIF(IUNIT(55).GT.0)THEN     ! GWM ACTIVE; SET LOOP CONTROLS
          CALL GWM1RMS1PL(IPERT,NPERT,FIRSTSIM,LASTSIM)
        ENDIF
C
C-------BEGIN PERTURBATION LOOP FOR GWM PROCESS
        DO 200 WHILE (IPERT .LE. NPERT)
C
C-------GWM NEEDS TO RESET SO THAT REALLOCATION DOES NOT OCCUR
        IF(.NOT.FIRSTSIM)ITERPK=2
        IF(.NOT.FIRSTSIM)ITERP =2
C
C-------PREPARE CALCULATION OF SIMULATION RESPONSE
        IF(IUNIT(55).GT.0) 
     &      CALL GWM1RMS1PP(IOUT,MFCNVRG,IPERT,FIRSTSIM,LASTSIM)
C
C-------PREPARE FLOW PROCESS FILES FOR NEXT SIMULATION
        IF(.NOT.FIRSTSIM)THEN
C---------REWIND FLOW PROCESS MODEL FILES 
          CALL GWM1BAS1RW(INUNIT,FNAME,CUNIT,IREWND,NIUNIT,IOUT,IOUTG,
     &                      VERSION)
C---------NPNORW IS THE NUMBER OF PARAMETERS FROM NON-REWOUND FILES
          NPNORW=NPLIST+NPLPF+NPHUF+NPLVDA+NPKDEP
C---------ERASE ALL PARAMETER NAMES THAT ARE READ FROM REWOUND FILES
          DO 210 I=NPNORW+1,IPSUM
            PARNAM(I)=' '
  210     CONTINUE
C---------RESET THE PARAMETER COUNTER TO THE NUMBER OF PRE-READ PARAMETERS
          IPSUM=NPNORW
        ENDIF
C-----END GWM INSERTION OF LOOPING CONTROLS
C
C4------ALLOCATE SPACE IN RX AND IR ARRAYS.
        CALL GWF1BAS6ALP(HEADNG,NPER,TOTIM,NCOL,NROW,NLAY,NODES,INBAS,
cgzh mnw dp
     1                   IOUT,IXSEC,ICHFLG,IFREFM,ISUMRX,ISUMIR,ISUMRZ,
     2                   LCIOFL,ISTRT,IAPART)
        IF(IUNIT(1).GT.0)
     1      CALL GWF1BCF6ALP(ISUMRX,LCSC1,LCHY,LCSC2,LCTRPY,ITRSS,ISS,
     2                       IUNIT(1),NCOL,NROW,NLAY,IOUT,IBCFCB,LCWETD,
     3                       IWDFLG,LCCVWD,WETFCT,IWETIT,IHDWET,HDRY,
     4                       IAPART,IFREFM,LAYHDT)
        IF(IUNIT(2).GT.0)
     1      CALL GWF1WEL6ALP(ISUMRX,LCWELL,MXWELL,NWELLS,IUNIT(2),IOUT,
     2                       IWELCB,NWELVL,IWELAL,IFREFM,NPWEL,IPWBEG,
     3                       NNPWEL,NOPRWL)
        IF(IUNIT(3).GT.0)
     1      CALL GWF1DRN6ALP(ISUMRX,LCDRAI,MXDRN,NDRAIN,IUNIT(3),IOUT,
     2                       IDRNCB,NDRNVL,IDRNAL,IFREFM,NPDRN,IDRNPB,
     3                       NNPDRN,NOPRDR)
        IF(IUNIT(4).GT.0)
     1      CALL GWF1RIV6ALP(ISUMRX,LCRIVR,MXRIVR,NRIVER,IUNIT(4),IOUT,
     2                       IRIVCB,NRIVVL,IRIVAL,IFREFM,NPRIV,IRIVPB,
     3                       NNPRIV,NOPRRV)
        IF(IUNIT(5).GT.0)
     1      CALL GWF1EVT6ALP(ISUMRX,ISUMIR,LCIEVT,LCEVTR,LCEXDP,LCSURF,
     2                       NCOL,NROW,NEVTOP,IUNIT(5),IOUT,IEVTCB,
     3                       IFREFM,NPEVT,IEVTPF)
        IF(IUNIT(7).GT.0)
     1      CALL GWF1GHB6ALP(ISUMRX,LCBNDS,MXBND,NBOUND,IUNIT(7),IOUT,
     2                       IGHBCB,NGHBVL,IGHBAL,IFREFM,NPGHB,IGHBPB,
     3                       NNPGHB,NOPRGB)
        IF(IUNIT(8).GT.0)
     1      CALL GWF1RCH6ALP(ISUMRX,ISUMIR,LCIRCH,LCRECH,NRCHOP,NCOL,
     2                       NROW,IUNIT(8),IOUT,IRCHCB,IFREFM,NPRCH,
     3                       IRCHPF)
        IF(IUNIT(16).GT.0)
     1      CALL GWF1FHB1ALP(ISUMRX,ISUMIR,LCFLLC,LCBDTM,LCFLRT,LCBDFV,
     2                  LCBDHV,LCHDLC,LCSBHD,NBDTIM,NFLW,NHED,IUNIT(16),
     3                  IOUT,IFHBCB,NFHBX1,NFHBX2,IFHBD3,IFHBD4,IFHBD5,
     4                  IFHBSS,ITRSS,NHEDDIM,NFLWDIM,NBDHVDIM)
        IF(IUNIT(18).GT.0)
     1      CALL GWF1STR6ALP(ISUMRX,ISUMIR,LCSTRM_,ICSTRM_,MXSTRM,
     2                  NSTREM,IUNIT(18),IOUT,ISTCB1STR6,ISTCB2STR6,
     3                  NSSSTR6,NTRIB,NDIV,ICALC,CONSTSTR6,LCTBAR,
     4                  LCTRIB,LCIVAR_,LCFGAR,NPSTR,ISTRPB)
        IF(IUNIT(19).GT.0)
     1      CALL GWF1IBS6ALP(ISUMRX,LCHC,LCSCE,LCSCV,LCSUB,NCOL,
     2                  NROW,NLAY,IIBSCB,IIBSOC,IUNIT(19),IOUT,IBSDIM,
     &                  IUNIT(54))
        IF(IUNIT(54).GT.0)
     1      CALL GWF1SUB1ALP(NROW,NCOL,NLAY,ITERP,ISUBCB,ISUBOC,AC1,AC2,
     2                  ITMIN,NNDB,NDB,NPZ,NN,NND1,ND1,ND2,IDSAVE,
     3                  IDREST,ISSFLG,NPER,NSTP,NSTPT,IUNIT(54),IOUT,
     4                  IUNIT(9),LCV,ISEN)
        IF(IUNIT(20).GT.0)
     1      CALL GWF1CHD6ALP(ISUMRX,LCCHDS,NCHDS,MXCHD,IUNIT(20),IOUT,
     2                       NCHDVL,IFREFM,NPCHD,IPCBEG,NNPCHD,NOPRCH)
        IF (IUNIT(17).GT.0)
     &      CALL GWF1RES1ALP(ISUMRX,LCIRES,LCIRSL,LCBRES,LCCRES,LCBBRE,
     &                  LCHRES,LCHRSE,IUNIT(17),IOUT,NRES,IRESCB,NRESOP,
     &                  IRESPT,NPTS,NCOL,NROW,ISUMIR)
        IF (IUNIT(21).GT.0)
     &      CALL GWF1HFB6ALP(IUNIT(21),IOUT,ISUMRX,LCHFB,MXACTFB,NHFBNP,
     &                       NPHFB,MXHFB,IHFB,NOPRHB)
Cdep  Changed SFR1 call to SFR2 call
Cdep   ADDED 3 NEW ARGUMENTS TO END OF SFR2ALP CALL STATEMENT FOR
Cdep   REVISIONS TO THE CALCULATION OF LAKE OUTFLOW
Cdep   June 6, 2006
        IF(IUNIT(44).GT.0) THEN
            CALL GWF1SFR2ALP(ISUMRX,ISUMIR,ISUMRZ,LCSTRM,ICSTRM,
     2             NSTRM,IUNIT(44),IOUT,ISTCB1,ISTCB2,NSS,CONST,MAXPTS,
     3             DLEAK,LCSEG,ICSEG,LCOTSG,LCXSEC,LCIVAR,LCQSTG,
     4             IUNIT(22),ISTRIN,ISTROT,LCOTFLW,LCDVFLW,IUNIT(15),
     5             NSOL,LSCOUT,LSCONQ,LSCNRN,LSCNTB,LSSLIN,LSCQIN,
     6             LSCGW,ISTGLD,IDSTRT,LSSIN,LSSOUT,LSCOTO,LKACC7,
     7             LCSTAG,LSLAKE,ISTGNW,LSCPPT,LCNSEG,NSFRPAR,
     8             NSEGDIM,LCSFRQ,NSTRMAR,NSSAR,LCSUZDPIT,LCSUZDPST,
     9             LCSUZTHIT,LCSUZTHST,LCSUZSPIT,LCSUZSPST,LCSUZFLIT,
     &             LCSUZFLST,LCSUZFLWT,LCSUZSTOR,LCSDELSTR,LCSUZWDTH,
     &             ICSLTRLIT,ICSLTRLST,ICSITRLIT,ICSITRLST,ICSTRLHLD,
     &             ICSNWAVST,ISFROPT,IUZT,ISUZN,NSTRAIL,NSTOTRL,NUZST,
     &             LCSOLSFLX,ICSLOOP,LCSTHTS,LCSTHTR,LCSTHTI,LCSEPS,
     &             NCOL,NROW,ICELEV,LCDPTH,LCWETP,NSFRSETS,LCSUZSEEP,
     &             LCOLDFLBT,NUMCELL,NUZROW,NUZCOL,LCAVWAT,LCWAT1,
     &             NUMAVE,LCAVDPT,LCUHC,LCSFRUZBD,NSSLK,ISLKOTFLW,
     &             IDLKOTFLW,IDLKSTAGE)
        ENDIF
Cdep   ADDED 4 NEW ARGUMENTS TO END OF LAK3ALP CALL STATEMENT FOR
Cdep   REVISIONS TO THE CALCULATION OF  LAKE STAGE AND OUTFLOW
Cdep   June 6, 2006
CLAK
        IF(IUNIT(22).GT.0)
     1               CALL GWF1LAK3ALP(ISUMRX,ISUMIR,LCCOND,ICLAKE,
     2     MXLKND,LKNODE,LCSTAG,IUNIT(22),IOUT,ILKCB,NLAKES,INTRB,
     3     INDV,LCCNDF,LCLKPR,LCLKEV,ISTGLD,ISTGNW,IICS,IISUB,ISILL,
     4     LCWTDR,IFREFM,NROW,NCOL,NLAY,IBNLK,ILKBL,LKACC1,LKACC2,
     5     LKACC3,LKACC4,LKACC5,LKACC6,LKACC7,LKACC8,LKACC9,LKACC10,
     6     LKACC11,LKDRY,IBTMS,LKNCNT,LKKSUB,LKSADJ,LKFLXI,LKNCNS,LKSVT,
     7     LKJCLS,THETA,LCRNF,ITRSS,NSSITR,SSCNCR,LKSSMN,LKSSMX,LKNCN,
     8     LKDSR,LKCNN,LKCHN,IAREN,IUNIT(44),LSOVOL,NSS,IUNIT(15),
     9     LSLAKE,LSPPT,LSRNF,LSAUG,NSOL,IMSUB,IMSUB1,LSCGWL,LSSLAK,
     *     LSSWIN,LSSWOT,LSSPPT,LSCDRW,LSSRUN,LSGWIN,LSGWOT,LSLKSM,
     *     LSKLK,LSDONE,LSFLOB,LSRTCO,LSCLKO,LSALKI,LSALKO,ISTRIN,
     *     ISTROT,LKLMRR,IDSTRT,LKVI,ISTGLD2,LKCLKI,LKCUM1,LKCUM2,
     *     LKCUM3,LKCUM4,LKCUM5,LKCUM6,LKCUM7,LKCUM8,LKCUM9,NSSAR,
     *     NLAKESAR,IUNIT(46),ISTGITR,LKSEP3,IAREATAB,IDPTHTAB,LCSEG,
     *     ISUMRZ,NSSLK,ISLKOTFLW,IDLKOTFLW,IDLKSTAGE,LCEVAPO,
     *     LCFLWIN,LCFLWIT,LCWITDW,LCGWRAT)
CLAK
        IF(IUNIT(46).GT.0)
     &      CALL GWF1GAG5ALP(IUNIT(46),ISUMIR,ISUMRX,LSGAGE,NUMGAGE,
     &                       IOUT,IUNIT(44),IUNIT(22),LKACC7,LCSTAG,
     &                       LSLAKE,ICSTRM,LCIVAR)
        IF(IUNIT(39).GT.0)
     &      CALL GWF1ETS1ALP(ISUMRX,ISUMIR,LCIETS,LCETSR,LCETSX,LCETSS,
     &                       NCOL,NROW,NETSOP,IUNIT(39),IOUT,IETSCB,
     &                       IFREFM,NPETS,IETSPF,NETSEG,LCPXDP,LCPETM,
     &                       NSEGAR)
        IF(IUNIT(40).GT.0)
     &      CALL GWF1DRT1ALP(ISUMRX,LCDRTF,MXDRT,NDRTCL,IUNIT(40),IOUT,
     &                       IDRTCB,NDRTVL,IDRTAL,IFREFM,NPDRT,IDRTPB,
     &                       NDRTNP,IDRTFL,NOPRDT)
        IF (IUNIT(43).GT.0)
     &      CALL GWF1HYD1ALP(ISUMRX,LCHYDM,NHYDM,IHYDMUN,HYDNOH,
     &                       IUNIT(43),IOUT)
        IF(IUNIT(51).GT.0)
     1      CALL GWF1DAF1ALP(IERR,IUNIT(52)+1,IUNIT(52),IUNIT(51),IOUT,
     2                       IDAFCB,IDAFBK)
        IF(IUNIT(50).GT.0) THEN
          CALL GWF1MNW1AL(ISUMRZ,LCWEL2,MXWEL2,NWELL2,LCHREF,NODES,
     &                    KSPREF,IUNIT(50),IOUT,IWL2CB,IOWELL2,
     &                    NOMOITER,MNWNAME,FNAME)
C
C         Allocate array for MNW1 site IDs
          IF (ITERPK.EQ.1) THEN
            ALLOCATE (MNWSITE(MXWEL2+1),STAT=ISTAT)
            IF (ISTAT.NE.0) THEN
              WRITE(*,703)ISTAT
  703         FORMAT(1X,'ALLOCATION OF ARRAY MNWSITE FAILED,',/,
     &        ' RETURNED ERROR MESSAGE NUMBER: ',I6)
              CALL USTOP(' ')
            ENDIF
          ENDIF
        ENDIF
C
C------DYNAMICALLY ALLOCATE RX AND IR ARRAYS FOR PACKAGES THAT DO
C      ALLOCATION EVERY PARAMETER-ESTIMATION ITERATION.  FOR STATIC
C      MEMORY ALLOCATION, THE FOLLOWING IF...THEN BLOCK MUST BE
C      COMMENTED OUT
        IF (ITERPK.EQ.1) THEN
          LENRX = ISUMRX - 1
          IF(LENRX.LE.0) LENRX=1
          LENIR = ISUMIR - 1
          IF(LENIR.LE.0) LENIR=1
cgzh mnw dp
          LENRZ = ISUMRZ - 1
          IF(LENRZ.LE.0) LENRZ=1
cgzh mnw dp
          ALLOCATE (RX(LENRX),IR(LENIR),RZ(LENRZ),STAT=ISTAT)
          IF (ISTAT.NE.0) THEN
            WRITE(*,704)ISTAT
cgzh mnw dp
  704       FORMAT(1X,'ALLOCATION OF ARRAYS RX, IR, RZ FAILED,',/,
     &      ' RETURNED ERROR MESSAGE NUMBER: ',I6)
            CALL USTOP(' ')
          ENDIF
        ENDIF
C
C5------IF THE ARRAYS ARE NOT BIG ENOUGH THEN STOP.
        CALL MEMCHKR(ISUMRX,ISUMIR,LENRX,LENIR,IOUT,IERR,IERRU)
        IF (IERR.GT.0) CALL PLL1SD(IERR,IERRU,IOUT,IOUTG)
C
C6------READ AND PREPARE INFORMATION FOR ENTIRE SIMULATION.
C---------BASIC PACKAGE
        IF(IUNIT(55).GT.0 .AND. .NOT.FIRSTSIM .AND. .NOT.LASTSIM)THEN
C-------FOR SOME STEADY GWM RUNS DON'T NEED TO RESET INITIAL HEADS
        CALL GWM1BAS1RPP(IG(LCIBOU),GZ(LCHNEW),GX(LCSTRT),INBAS,HEADNG,